Circuit: * D:\_DOCUMENTS\Embedded Systems\EmbeddedSystemsProject\CircuitDesign\amp_to_3_3v.asc

Direct Newton iteration failed to find .op point.  (Use ".option noopiter" to skip.)
Starting Gmin stepping
Gmin = 10
Gmin = 1.07374
Gmin = 0.115292
Gmin = 0.0123794
Gmin = 0.00132923
Gmin = 0.000142725
Gmin = 1.5325e-05
Gmin = 1.6455e-06
Gmin = 1.76685e-07
Gmin = 1.89714e-08
Gmin = 2.03704e-09
Gmin = 2.18725e-10
Gmin = 2.34854e-11
Gmin = 2.52173e-12
Gmin = 2.70769e-13
Gmin = 0
Gmin stepping succeeded in finding the operating point.


Date: Mon Feb 26 21:05:26 2024
Total elapsed time: 0.196 seconds.

tnom = 27
temp = 27
method = modified trap
totiter = 2523
traniter = 2086
tranpoints = 1044
accept = 1044
rejected = 0
matrix size = 25
fillins = 34
solver = Normal
Avg thread counts: 3.8/6.6/6.6/3.8
Matrix Compiler1:     222 opcodes  0.7/[0.4]/0.4
Matrix Compiler2: 3.09 KB object code size  0.3/0.3/[0.2]

