Circuit: * D:\_DOCUMENTS\Embedded Systems\EmbeddedSystemsProject\CircuitDesign\amp_to_3_3v.asc

Early termination of direct N-R iteration.
Direct Newton iteration failed to find .op point.  (Use ".option noopiter" to skip.)
Starting Gmin stepping
Gmin = 10
Gmin = 1.07374
Gmin = 0.115292
Gmin = 0.0123794
Gmin = 0.00132923
Gmin = 0.000142725
Gmin = 1.5325e-05
Gmin = 1.6455e-06
Gmin = 1.76685e-07
Gmin = 1.89714e-08
Gmin = 2.03704e-09
Gmin = 2.18725e-10
Gmin = 2.34854e-11
Gmin = 2.52173e-12
Gmin = 2.70769e-13
Gmin = 0
Gmin stepping succeeded in finding the operating point.


Date: Mon Mar 11 16:19:17 2024
Total elapsed time: 0.157 seconds.

tnom = 27
temp = 27
method = modified trap
totiter = 2479
traniter = 2100
tranpoints = 1051
accept = 1050
rejected = 1
matrix size = 28
fillins = 41
solver = Normal
Avg thread counts: 3.8/6.6/6.6/3.8
Matrix Compiler1: 4.52 KB object code size  0.9/0.4/[0.3]
Matrix Compiler2:     262 opcodes  0.4/[0.3]/0.3

