Circuit: * D:\_DOCUMENTS\Embedded Systems\EmbeddedSystemsProject\data analysis\cascaded_RLC.asc

.OP point found by inspection.

Date: Fri May  3 17:12:15 2024
Total elapsed time: 0.159 seconds.

tnom = 27
temp = 27
method = modified trap
totiter = 9446
traniter = 9446
tranpoints = 4724
accept = 3150
rejected = 1574
matrix size = 5
fillins = 0
solver = Normal
Avg thread counts: 1.6/2.2/2.2/1.6
Matrix Compiler1:       9 opcodes  0.2/[0.1]/0.2
Matrix Compiler2: 321 bytes object code size  0.1/0.2/[0.1]

